[General]
preload-ned-files = *.ned @nedincludes.lst
network = mobileNet
sim-time-limit = 1000

[Cmdenv]
express-mode = yes
[Parameters]
##############################
# Simulation parameters #
##############################
mobileNet.**.coreDebug = 0
mobileNet.playgroundSizeX = 547
mobileNet.playgroundSizeY = 547
mobileNet.playgroundSizeZ = 0
mobileNet.numHosts = 20 
mobileNet.Node[*].normalNic.jump = 1 
mobileNet.Node[*].normalNic.algorithm = 4 
mobileNet.Node[*].normalNic.gain = 0.750000 
mobileNet.Node[*].normalNic.hosts = 20 

##############################
# World Utility Parameters #
##############################
mobileNet.world.useTorus = 0
mobileNet.world.use2D = 0

##############################
# Channel Parameters #
##############################
mobileNet.Channel.coreDebug = 0
mobileNet.Channel.sendDirect = 0
mobileNet.Channel.pMax = 20
mobileNet.Channel.sat = -82
mobileNet.Channel.alpha = 2.500000
mobileNet.Channel.carrierFrequency = 2.45e+9

##############################
# Host specific Parameters #
##############################
mobileNet.*Node*.utility.coreDebug = 0

##############################
# Physical Layer Parameters #
##############################
mobileNet.Node[*].normalNic.phy.usePropagationDelay = true
mobileNet.Node[*].normalNic.phy.thermalNoise = 1.0
mobileNet.Node[*].normalNic.phy.analogueModels = xmldoc("config.xml")
mobileNet.Node[*].normalNic.phy.decider = xmldoc("config.xml")
mobileNet.Node[*].normalNic.phy.timeRXToTX = 0.01
mobileNet.Node[*].normalNic.phy.timeRXToSleep = 0.015
mobileNet.Node[*].normalNic.phy.timeTXToRX = 0.02
mobileNet.Node[*].normalNic.phy.timeTXToSleep = 0.025
mobileNet.Node[*].normalNic.phy.timeSleepToRX = 0.03
mobileNet.Node[*].normalNic.phy.sensitivity = 0.2
mobileNet.Node[*].normalNic.phy.maxTXPower = 20.0
mobileNet.Node[*].normalNic.phy.timeSleepToTX = 0.035

##############################
# Host Parameters #
##############################
mobileNet.Node[*].normalNic.connectionManagerName = "Channel"
mobileNet.Node[*].mobility.angle = 2
mobileNet.Node[*].mobility.acceleration = 2 
mobileNet.Node[0].mobility.x = 100.000000
mobileNet.Node[0].mobility.y = 100.000000
mobileNet.Node[0].mobility.z = 0
mobileNet.Node[0].normalNic.id = 0
mobileNet.Node[0].normalNic.start_time = 0.318474 
mobileNet.Node[1].mobility.x = 200.000000
mobileNet.Node[1].mobility.y = 100.000000
mobileNet.Node[1].mobility.z = 0
mobileNet.Node[1].normalNic.id = 1
mobileNet.Node[1].normalNic.start_time = 0.957345 
mobileNet.Node[2].mobility.x = 300.000000
mobileNet.Node[2].mobility.y = 100.000000
mobileNet.Node[2].mobility.z = 0
mobileNet.Node[2].normalNic.id = 2
mobileNet.Node[2].normalNic.start_time = 0.583547 
mobileNet.Node[3].mobility.x = 400.000000
mobileNet.Node[3].mobility.y = 100.000000
mobileNet.Node[3].mobility.z = 0
mobileNet.Node[3].normalNic.id = 3
mobileNet.Node[3].normalNic.start_time = 0.049085 
mobileNet.Node[4].mobility.x = 100.000000
mobileNet.Node[4].mobility.y = 200.000000
mobileNet.Node[4].mobility.z = 0
mobileNet.Node[4].normalNic.id = 4
mobileNet.Node[4].normalNic.start_time = 0.617339 
mobileNet.Node[5].mobility.x = 200.000000
mobileNet.Node[5].mobility.y = 200.000000
mobileNet.Node[5].mobility.z = 0
mobileNet.Node[5].normalNic.id = 5
mobileNet.Node[5].normalNic.start_time = 0.346328 
mobileNet.Node[6].mobility.x = 300.000000
mobileNet.Node[6].mobility.y = 200.000000
mobileNet.Node[6].mobility.z = 0
mobileNet.Node[6].normalNic.id = 6
mobileNet.Node[6].normalNic.start_time = 0.762287 
mobileNet.Node[7].mobility.x = 400.000000
mobileNet.Node[7].mobility.y = 200.000000
mobileNet.Node[7].mobility.z = 0
mobileNet.Node[7].normalNic.id = 7
mobileNet.Node[7].normalNic.start_time = 0.871205 
mobileNet.Node[8].mobility.x = 100.000000
mobileNet.Node[8].mobility.y = 300.000000
mobileNet.Node[8].mobility.z = 0
mobileNet.Node[8].normalNic.id = 8
mobileNet.Node[8].normalNic.start_time = 0.865975 
mobileNet.Node[9].mobility.x = 200.000000
mobileNet.Node[9].mobility.y = 300.000000
mobileNet.Node[9].mobility.z = 0
mobileNet.Node[9].normalNic.id = 9
mobileNet.Node[9].normalNic.start_time = 0.245194 
mobileNet.Node[10].mobility.x = 300.000000
mobileNet.Node[10].mobility.y = 300.000000
mobileNet.Node[10].mobility.z = 0
mobileNet.Node[10].normalNic.id = 10
mobileNet.Node[10].normalNic.start_time = 0.873109 
mobileNet.Node[11].mobility.x = 400.000000
mobileNet.Node[11].mobility.y = 300.000000
mobileNet.Node[11].mobility.z = 0
mobileNet.Node[11].normalNic.id = 11
mobileNet.Node[11].normalNic.start_time = 0.617953 
mobileNet.Node[12].mobility.x = 100.000000
mobileNet.Node[12].mobility.y = 400.000000
mobileNet.Node[12].mobility.z = 0
mobileNet.Node[12].normalNic.id = 12
mobileNet.Node[12].normalNic.start_time = 0.485927 
mobileNet.Node[13].mobility.x = 200.000000
mobileNet.Node[13].mobility.y = 400.000000
mobileNet.Node[13].mobility.z = 0
mobileNet.Node[13].normalNic.id = 13
mobileNet.Node[13].normalNic.start_time = 0.804766 
mobileNet.Node[14].mobility.x = 300.000000
mobileNet.Node[14].mobility.y = 400.000000
mobileNet.Node[14].mobility.z = 0
mobileNet.Node[14].normalNic.id = 14
mobileNet.Node[14].normalNic.start_time = 0.138726 
mobileNet.Node[15].mobility.x = 400.000000
mobileNet.Node[15].mobility.y = 400.000000
mobileNet.Node[15].mobility.z = 0
mobileNet.Node[15].normalNic.id = 15
mobileNet.Node[15].normalNic.start_time = 0.302440 
mobileNet.Node[16].mobility.x = 100.000000
mobileNet.Node[16].mobility.y = 500.000000
mobileNet.Node[16].mobility.z = 0
mobileNet.Node[16].normalNic.id = 16
mobileNet.Node[16].normalNic.start_time = 0.466130 
mobileNet.Node[17].mobility.x = 200.000000
mobileNet.Node[17].mobility.y = 500.000000
mobileNet.Node[17].mobility.z = 0
mobileNet.Node[17].normalNic.id = 17
mobileNet.Node[17].normalNic.start_time = 0.424693 
mobileNet.Node[18].mobility.x = 300.000000
mobileNet.Node[18].mobility.y = 500.000000
mobileNet.Node[18].mobility.z = 0
mobileNet.Node[18].normalNic.id = 18
mobileNet.Node[18].normalNic.start_time = 0.265600 
mobileNet.Node[19].mobility.x = 400.000000
mobileNet.Node[19].mobility.y = 500.000000
mobileNet.Node[19].mobility.z = 0
mobileNet.Node[19].normalNic.id = 19
mobileNet.Node[19].normalNic.start_time = 0.602271 
mobileNet.Node[*].mobility.speed= 0.000000
mobileNet.Node[*].mobility.updateInterval= 1.000000
mobileNet.Node[*].mobility.debug = 0 

