[General]
preload-ned-files = *.ned @nedincludes.lst
network = mobileNet
sim-time-limit = 500

[Cmdenv]
express-mode = yes
[Parameters]
##############################
# Simulation parameters #
##############################
mobileNet.**.coreDebug = 0
mobileNet.playgroundSizeX = 330
mobileNet.playgroundSizeY = 330
mobileNet.playgroundSizeZ = 0
mobileNet.numHosts = 100 
mobileNet.Node[*].normalNic.jump = 1 
mobileNet.Node[*].normalNic.algorithm = 4 
mobileNet.Node[*].normalNic.gain = 0.800000 
mobileNet.Node[*].normalNic.hosts = 100 

##############################
# World Utility Parameters #
##############################
mobileNet.world.useTorus = 0
mobileNet.world.use2D = 0

##############################
# Channel Parameters #
##############################
mobileNet.Channel.coreDebug = 0
mobileNet.Channel.sendDirect = 0
mobileNet.Channel.pMax = 4
mobileNet.Channel.sat = -82
mobileNet.Channel.alpha = 2.500000
mobileNet.Channel.carrierFrequency = 2.45e+9

##############################
# Host specific Parameters #
##############################
mobileNet.*Node*.utility.coreDebug = 0

##############################
# Physical Layer Parameters #
##############################
mobileNet.Node[*].normalNic.phy.usePropagationDelay = true
mobileNet.Node[*].normalNic.phy.thermalNoise = 1.0
mobileNet.Node[*].normalNic.phy.analogueModels = xmldoc("config.xml")
mobileNet.Node[*].normalNic.phy.decider = xmldoc("config.xml")
mobileNet.Node[*].normalNic.phy.timeRXToTX = 0.01
mobileNet.Node[*].normalNic.phy.timeRXToSleep = 0.015
mobileNet.Node[*].normalNic.phy.timeTXToRX = 0.02
mobileNet.Node[*].normalNic.phy.timeTXToSleep = 0.025
mobileNet.Node[*].normalNic.phy.timeSleepToRX = 0.03
mobileNet.Node[*].normalNic.phy.sensitivity = 0.2
mobileNet.Node[*].normalNic.phy.maxTXPower = 20.0
mobileNet.Node[*].normalNic.phy.timeSleepToTX = 0.035

##############################
# Host Parameters #
##############################
mobileNet.Node[*].normalNic.connectionManagerName = "Channel"
mobileNet.Node[*].mobility.angle = 2
mobileNet.Node[*].mobility.acceleration = 2 
mobileNet.Node[0].mobility.x = 30.000000
mobileNet.Node[0].mobility.y = 30.000000
mobileNet.Node[0].mobility.z = 0
mobileNet.Node[0].normalNic.id = 0
mobileNet.Node[0].normalNic.start_time = 0.432433 
mobileNet.Node[0].mobility.speed= 5.583222
mobileNet.Node[0].mobility.updateInterval= 1.000000
mobileNet.Node[0].mobility.debug = 0 

mobileNet.Node[1].mobility.x = 60.000000
mobileNet.Node[1].mobility.y = 30.000000
mobileNet.Node[1].mobility.z = 0
mobileNet.Node[1].normalNic.id = 1
mobileNet.Node[1].normalNic.start_time = 0.134360 
mobileNet.Node[1].mobility.speed= 5.583222
mobileNet.Node[1].mobility.updateInterval= 1.000000
mobileNet.Node[1].mobility.debug = 0 

mobileNet.Node[2].mobility.x = 90.000000
mobileNet.Node[2].mobility.y = 30.000000
mobileNet.Node[2].mobility.z = 0
mobileNet.Node[2].normalNic.id = 2
mobileNet.Node[2].normalNic.start_time = 0.953202 
mobileNet.Node[2].mobility.speed= 5.583222
mobileNet.Node[2].mobility.updateInterval= 1.000000
mobileNet.Node[2].mobility.debug = 0 

mobileNet.Node[3].mobility.x = 120.000000
mobileNet.Node[3].mobility.y = 30.000000
mobileNet.Node[3].mobility.z = 0
mobileNet.Node[3].normalNic.id = 3
mobileNet.Node[3].normalNic.start_time = 0.437205 
mobileNet.Node[3].mobility.speed= 5.583222
mobileNet.Node[3].mobility.updateInterval= 1.000000
mobileNet.Node[3].mobility.debug = 0 

mobileNet.Node[4].mobility.x = 150.000000
mobileNet.Node[4].mobility.y = 30.000000
mobileNet.Node[4].mobility.z = 0
mobileNet.Node[4].normalNic.id = 4
mobileNet.Node[4].normalNic.start_time = 0.331887 
mobileNet.Node[4].mobility.speed= 5.583222
mobileNet.Node[4].mobility.updateInterval= 1.000000
mobileNet.Node[4].mobility.debug = 0 

mobileNet.Node[5].mobility.x = 180.000000
mobileNet.Node[5].mobility.y = 30.000000
mobileNet.Node[5].mobility.z = 0
mobileNet.Node[5].normalNic.id = 5
mobileNet.Node[5].normalNic.start_time = 0.278611 
mobileNet.Node[5].mobility.speed= 5.583222
mobileNet.Node[5].mobility.updateInterval= 1.000000
mobileNet.Node[5].mobility.debug = 0 

mobileNet.Node[6].mobility.x = 210.000000
mobileNet.Node[6].mobility.y = 30.000000
mobileNet.Node[6].mobility.z = 0
mobileNet.Node[6].normalNic.id = 6
mobileNet.Node[6].normalNic.start_time = 0.128697 
mobileNet.Node[6].mobility.speed= 5.583222
mobileNet.Node[6].mobility.updateInterval= 1.000000
mobileNet.Node[6].mobility.debug = 0 

mobileNet.Node[7].mobility.x = 240.000000
mobileNet.Node[7].mobility.y = 30.000000
mobileNet.Node[7].mobility.z = 0
mobileNet.Node[7].normalNic.id = 7
mobileNet.Node[7].normalNic.start_time = 0.857848 
mobileNet.Node[7].mobility.speed= 5.583222
mobileNet.Node[7].mobility.updateInterval= 1.000000
mobileNet.Node[7].mobility.debug = 0 

mobileNet.Node[8].mobility.x = 270.000000
mobileNet.Node[8].mobility.y = 30.000000
mobileNet.Node[8].mobility.z = 0
mobileNet.Node[8].normalNic.id = 8
mobileNet.Node[8].normalNic.start_time = 0.264536 
mobileNet.Node[8].mobility.speed= 5.583222
mobileNet.Node[8].mobility.updateInterval= 1.000000
mobileNet.Node[8].mobility.debug = 0 

mobileNet.Node[9].mobility.x = 300.000000
mobileNet.Node[9].mobility.y = 30.000000
mobileNet.Node[9].mobility.z = 0
mobileNet.Node[9].normalNic.id = 9
mobileNet.Node[9].normalNic.start_time = 0.947883 
mobileNet.Node[9].mobility.speed= 5.583222
mobileNet.Node[9].mobility.updateInterval= 1.000000
mobileNet.Node[9].mobility.debug = 0 

mobileNet.Node[10].mobility.x = 30.000000
mobileNet.Node[10].mobility.y = 60.000000
mobileNet.Node[10].mobility.z = 0
mobileNet.Node[10].normalNic.id = 10
mobileNet.Node[10].normalNic.start_time = 0.551570 
mobileNet.Node[10].mobility.speed= 5.583222
mobileNet.Node[10].mobility.updateInterval= 1.000000
mobileNet.Node[10].mobility.debug = 0 

mobileNet.Node[11].mobility.x = 60.000000
mobileNet.Node[11].mobility.y = 60.000000
mobileNet.Node[11].mobility.z = 0
mobileNet.Node[11].normalNic.id = 11
mobileNet.Node[11].normalNic.start_time = 0.093279 
mobileNet.Node[11].mobility.speed= 5.583222
mobileNet.Node[11].mobility.updateInterval= 1.000000
mobileNet.Node[11].mobility.debug = 0 

mobileNet.Node[12].mobility.x = 90.000000
mobileNet.Node[12].mobility.y = 60.000000
mobileNet.Node[12].mobility.z = 0
mobileNet.Node[12].normalNic.id = 12
mobileNet.Node[12].normalNic.start_time = 0.413230 
mobileNet.Node[12].mobility.speed= 5.583222
mobileNet.Node[12].mobility.updateInterval= 1.000000
mobileNet.Node[12].mobility.debug = 0 

mobileNet.Node[13].mobility.x = 120.000000
mobileNet.Node[13].mobility.y = 60.000000
mobileNet.Node[13].mobility.z = 0
mobileNet.Node[13].normalNic.id = 13
mobileNet.Node[13].normalNic.start_time = 0.386706 
mobileNet.Node[13].mobility.speed= 5.583222
mobileNet.Node[13].mobility.updateInterval= 1.000000
mobileNet.Node[13].mobility.debug = 0 

mobileNet.Node[14].mobility.x = 150.000000
mobileNet.Node[14].mobility.y = 60.000000
mobileNet.Node[14].mobility.z = 0
mobileNet.Node[14].normalNic.id = 14
mobileNet.Node[14].normalNic.start_time = 0.869172 
mobileNet.Node[14].mobility.speed= 5.583222
mobileNet.Node[14].mobility.updateInterval= 1.000000
mobileNet.Node[14].mobility.debug = 0 

mobileNet.Node[15].mobility.x = 180.000000
mobileNet.Node[15].mobility.y = 60.000000
mobileNet.Node[15].mobility.z = 0
mobileNet.Node[15].normalNic.id = 15
mobileNet.Node[15].normalNic.start_time = 0.353727 
mobileNet.Node[15].mobility.speed= 5.583222
mobileNet.Node[15].mobility.updateInterval= 1.000000
mobileNet.Node[15].mobility.debug = 0 

mobileNet.Node[16].mobility.x = 210.000000
mobileNet.Node[16].mobility.y = 60.000000
mobileNet.Node[16].mobility.z = 0
mobileNet.Node[16].normalNic.id = 16
mobileNet.Node[16].normalNic.start_time = 0.087528 
mobileNet.Node[16].mobility.speed= 5.583222
mobileNet.Node[16].mobility.updateInterval= 1.000000
mobileNet.Node[16].mobility.debug = 0 

mobileNet.Node[17].mobility.x = 240.000000
mobileNet.Node[17].mobility.y = 60.000000
mobileNet.Node[17].mobility.z = 0
mobileNet.Node[17].normalNic.id = 17
mobileNet.Node[17].normalNic.start_time = 0.251227 
mobileNet.Node[17].mobility.speed= 5.583222
mobileNet.Node[17].mobility.updateInterval= 1.000000
mobileNet.Node[17].mobility.debug = 0 

mobileNet.Node[18].mobility.x = 270.000000
mobileNet.Node[18].mobility.y = 60.000000
mobileNet.Node[18].mobility.z = 0
mobileNet.Node[18].normalNic.id = 18
mobileNet.Node[18].normalNic.start_time = 0.393085 
mobileNet.Node[18].mobility.speed= 5.583222
mobileNet.Node[18].mobility.updateInterval= 1.000000
mobileNet.Node[18].mobility.debug = 0 

mobileNet.Node[19].mobility.x = 300.000000
mobileNet.Node[19].mobility.y = 60.000000
mobileNet.Node[19].mobility.z = 0
mobileNet.Node[19].normalNic.id = 19
mobileNet.Node[19].normalNic.start_time = 0.896810 
mobileNet.Node[19].mobility.speed= 5.583222
mobileNet.Node[19].mobility.updateInterval= 1.000000
mobileNet.Node[19].mobility.debug = 0 

mobileNet.Node[20].mobility.x = 30.000000
mobileNet.Node[20].mobility.y = 90.000000
mobileNet.Node[20].mobility.z = 0
mobileNet.Node[20].normalNic.id = 20
mobileNet.Node[20].normalNic.start_time = 0.601223 
mobileNet.Node[20].mobility.speed= 5.583222
mobileNet.Node[20].mobility.updateInterval= 1.000000
mobileNet.Node[20].mobility.debug = 0 

mobileNet.Node[21].mobility.x = 60.000000
mobileNet.Node[21].mobility.y = 90.000000
mobileNet.Node[21].mobility.z = 0
mobileNet.Node[21].normalNic.id = 21
mobileNet.Node[21].normalNic.start_time = 0.253819 
mobileNet.Node[21].mobility.speed= 5.583222
mobileNet.Node[21].mobility.updateInterval= 1.000000
mobileNet.Node[21].mobility.debug = 0 

mobileNet.Node[22].mobility.x = 90.000000
mobileNet.Node[22].mobility.y = 90.000000
mobileNet.Node[22].mobility.z = 0
mobileNet.Node[22].normalNic.id = 22
mobileNet.Node[22].normalNic.start_time = 0.176901 
mobileNet.Node[22].mobility.speed= 5.583222
mobileNet.Node[22].mobility.updateInterval= 1.000000
mobileNet.Node[22].mobility.debug = 0 

mobileNet.Node[23].mobility.x = 120.000000
mobileNet.Node[23].mobility.y = 90.000000
mobileNet.Node[23].mobility.z = 0
mobileNet.Node[23].normalNic.id = 23
mobileNet.Node[23].normalNic.start_time = 0.068107 
mobileNet.Node[23].mobility.speed= 5.583222
mobileNet.Node[23].mobility.updateInterval= 1.000000
mobileNet.Node[23].mobility.debug = 0 

mobileNet.Node[24].mobility.x = 150.000000
mobileNet.Node[24].mobility.y = 90.000000
mobileNet.Node[24].mobility.z = 0
mobileNet.Node[24].normalNic.id = 24
mobileNet.Node[24].normalNic.start_time = 0.850921 
mobileNet.Node[24].mobility.speed= 5.583222
mobileNet.Node[24].mobility.updateInterval= 1.000000
mobileNet.Node[24].mobility.debug = 0 

mobileNet.Node[25].mobility.x = 180.000000
mobileNet.Node[25].mobility.y = 90.000000
mobileNet.Node[25].mobility.z = 0
mobileNet.Node[25].normalNic.id = 25
mobileNet.Node[25].normalNic.start_time = 0.251283 
mobileNet.Node[25].mobility.speed= 5.583222
mobileNet.Node[25].mobility.updateInterval= 1.000000
mobileNet.Node[25].mobility.debug = 0 

mobileNet.Node[26].mobility.x = 210.000000
mobileNet.Node[26].mobility.y = 90.000000
mobileNet.Node[26].mobility.z = 0
mobileNet.Node[26].normalNic.id = 26
mobileNet.Node[26].normalNic.start_time = 0.049807 
mobileNet.Node[26].mobility.speed= 5.583222
mobileNet.Node[26].mobility.updateInterval= 1.000000
mobileNet.Node[26].mobility.debug = 0 

mobileNet.Node[27].mobility.x = 240.000000
mobileNet.Node[27].mobility.y = 90.000000
mobileNet.Node[27].mobility.z = 0
mobileNet.Node[27].normalNic.id = 27
mobileNet.Node[27].normalNic.start_time = 0.040656 
mobileNet.Node[27].mobility.speed= 5.583222
mobileNet.Node[27].mobility.updateInterval= 1.000000
mobileNet.Node[27].mobility.debug = 0 

mobileNet.Node[28].mobility.x = 270.000000
mobileNet.Node[28].mobility.y = 90.000000
mobileNet.Node[28].mobility.z = 0
mobileNet.Node[28].normalNic.id = 28
mobileNet.Node[28].normalNic.start_time = 0.194720 
mobileNet.Node[28].mobility.speed= 5.583222
mobileNet.Node[28].mobility.updateInterval= 1.000000
mobileNet.Node[28].mobility.debug = 0 

mobileNet.Node[29].mobility.x = 300.000000
mobileNet.Node[29].mobility.y = 90.000000
mobileNet.Node[29].mobility.z = 0
mobileNet.Node[29].normalNic.id = 29
mobileNet.Node[29].normalNic.start_time = 0.314576 
mobileNet.Node[29].mobility.speed= 5.583222
mobileNet.Node[29].mobility.updateInterval= 1.000000
mobileNet.Node[29].mobility.debug = 0 

mobileNet.Node[30].mobility.x = 30.000000
mobileNet.Node[30].mobility.y = 120.000000
mobileNet.Node[30].mobility.z = 0
mobileNet.Node[30].normalNic.id = 30
mobileNet.Node[30].normalNic.start_time = 0.912383 
mobileNet.Node[30].mobility.speed= 5.583222
mobileNet.Node[30].mobility.updateInterval= 1.000000
mobileNet.Node[30].mobility.debug = 0 

mobileNet.Node[31].mobility.x = 60.000000
mobileNet.Node[31].mobility.y = 120.000000
mobileNet.Node[31].mobility.z = 0
mobileNet.Node[31].normalNic.id = 31
mobileNet.Node[31].normalNic.start_time = 0.421357 
mobileNet.Node[31].mobility.speed= 5.583222
mobileNet.Node[31].mobility.updateInterval= 1.000000
mobileNet.Node[31].mobility.debug = 0 

mobileNet.Node[32].mobility.x = 90.000000
mobileNet.Node[32].mobility.y = 120.000000
mobileNet.Node[32].mobility.z = 0
mobileNet.Node[32].normalNic.id = 32
mobileNet.Node[32].normalNic.start_time = 0.214004 
mobileNet.Node[32].mobility.speed= 5.583222
mobileNet.Node[32].mobility.updateInterval= 1.000000
mobileNet.Node[32].mobility.debug = 0 

mobileNet.Node[33].mobility.x = 120.000000
mobileNet.Node[33].mobility.y = 120.000000
mobileNet.Node[33].mobility.z = 0
mobileNet.Node[33].normalNic.id = 33
mobileNet.Node[33].normalNic.start_time = 0.448155 
mobileNet.Node[33].mobility.speed= 5.583222
mobileNet.Node[33].mobility.updateInterval= 1.000000
mobileNet.Node[33].mobility.debug = 0 

mobileNet.Node[34].mobility.x = 150.000000
mobileNet.Node[34].mobility.y = 120.000000
mobileNet.Node[34].mobility.z = 0
mobileNet.Node[34].normalNic.id = 34
mobileNet.Node[34].normalNic.start_time = 0.395048 
mobileNet.Node[34].mobility.speed= 5.583222
mobileNet.Node[34].mobility.updateInterval= 1.000000
mobileNet.Node[34].mobility.debug = 0 

mobileNet.Node[35].mobility.x = 180.000000
mobileNet.Node[35].mobility.y = 120.000000
mobileNet.Node[35].mobility.z = 0
mobileNet.Node[35].normalNic.id = 35
mobileNet.Node[35].normalNic.start_time = 0.528510 
mobileNet.Node[35].mobility.speed= 5.583222
mobileNet.Node[35].mobility.updateInterval= 1.000000
mobileNet.Node[35].mobility.debug = 0 

mobileNet.Node[36].mobility.x = 210.000000
mobileNet.Node[36].mobility.y = 120.000000
mobileNet.Node[36].mobility.z = 0
mobileNet.Node[36].normalNic.id = 36
mobileNet.Node[36].normalNic.start_time = 0.130078 
mobileNet.Node[36].mobility.speed= 5.583222
mobileNet.Node[36].mobility.updateInterval= 1.000000
mobileNet.Node[36].mobility.debug = 0 

mobileNet.Node[37].mobility.x = 240.000000
mobileNet.Node[37].mobility.y = 120.000000
mobileNet.Node[37].mobility.z = 0
mobileNet.Node[37].normalNic.id = 37
mobileNet.Node[37].normalNic.start_time = 0.533033 
mobileNet.Node[37].mobility.speed= 5.583222
mobileNet.Node[37].mobility.updateInterval= 1.000000
mobileNet.Node[37].mobility.debug = 0 

mobileNet.Node[38].mobility.x = 270.000000
mobileNet.Node[38].mobility.y = 120.000000
mobileNet.Node[38].mobility.z = 0
mobileNet.Node[38].normalNic.id = 38
mobileNet.Node[38].normalNic.start_time = 0.699166 
mobileNet.Node[38].mobility.speed= 5.583222
mobileNet.Node[38].mobility.updateInterval= 1.000000
mobileNet.Node[38].mobility.debug = 0 

mobileNet.Node[39].mobility.x = 300.000000
mobileNet.Node[39].mobility.y = 120.000000
mobileNet.Node[39].mobility.z = 0
mobileNet.Node[39].normalNic.id = 39
mobileNet.Node[39].normalNic.start_time = 0.424704 
mobileNet.Node[39].mobility.speed= 5.583222
mobileNet.Node[39].mobility.updateInterval= 1.000000
mobileNet.Node[39].mobility.debug = 0 

mobileNet.Node[40].mobility.x = 30.000000
mobileNet.Node[40].mobility.y = 150.000000
mobileNet.Node[40].mobility.z = 0
mobileNet.Node[40].normalNic.id = 40
mobileNet.Node[40].normalNic.start_time = 0.683097 
mobileNet.Node[40].mobility.speed= 5.583222
mobileNet.Node[40].mobility.updateInterval= 1.000000
mobileNet.Node[40].mobility.debug = 0 

mobileNet.Node[41].mobility.x = 60.000000
mobileNet.Node[41].mobility.y = 150.000000
mobileNet.Node[41].mobility.z = 0
mobileNet.Node[41].normalNic.id = 41
mobileNet.Node[41].normalNic.start_time = 0.133401 
mobileNet.Node[41].mobility.speed= 5.583222
mobileNet.Node[41].mobility.updateInterval= 1.000000
mobileNet.Node[41].mobility.debug = 0 

mobileNet.Node[42].mobility.x = 90.000000
mobileNet.Node[42].mobility.y = 150.000000
mobileNet.Node[42].mobility.z = 0
mobileNet.Node[42].normalNic.id = 42
mobileNet.Node[42].normalNic.start_time = 0.391036 
mobileNet.Node[42].mobility.speed= 5.583222
mobileNet.Node[42].mobility.updateInterval= 1.000000
mobileNet.Node[42].mobility.debug = 0 

mobileNet.Node[43].mobility.x = 120.000000
mobileNet.Node[43].mobility.y = 150.000000
mobileNet.Node[43].mobility.z = 0
mobileNet.Node[43].normalNic.id = 43
mobileNet.Node[43].normalNic.start_time = 0.907489 
mobileNet.Node[43].mobility.speed= 5.583222
mobileNet.Node[43].mobility.updateInterval= 1.000000
mobileNet.Node[43].mobility.debug = 0 

mobileNet.Node[44].mobility.x = 150.000000
mobileNet.Node[44].mobility.y = 150.000000
mobileNet.Node[44].mobility.z = 0
mobileNet.Node[44].normalNic.id = 44
mobileNet.Node[44].normalNic.start_time = 0.743013 
mobileNet.Node[44].mobility.speed= 5.583222
mobileNet.Node[44].mobility.updateInterval= 1.000000
mobileNet.Node[44].mobility.debug = 0 

mobileNet.Node[45].mobility.x = 180.000000
mobileNet.Node[45].mobility.y = 150.000000
mobileNet.Node[45].mobility.z = 0
mobileNet.Node[45].normalNic.id = 45
mobileNet.Node[45].normalNic.start_time = 0.862263 
mobileNet.Node[45].mobility.speed= 5.583222
mobileNet.Node[45].mobility.updateInterval= 1.000000
mobileNet.Node[45].mobility.debug = 0 

mobileNet.Node[46].mobility.x = 210.000000
mobileNet.Node[46].mobility.y = 150.000000
mobileNet.Node[46].mobility.z = 0
mobileNet.Node[46].normalNic.id = 46
mobileNet.Node[46].normalNic.start_time = 0.284605 
mobileNet.Node[46].mobility.speed= 5.583222
mobileNet.Node[46].mobility.updateInterval= 1.000000
mobileNet.Node[46].mobility.debug = 0 

mobileNet.Node[47].mobility.x = 240.000000
mobileNet.Node[47].mobility.y = 150.000000
mobileNet.Node[47].mobility.z = 0
mobileNet.Node[47].normalNic.id = 47
mobileNet.Node[47].normalNic.start_time = 0.866654 
mobileNet.Node[47].mobility.speed= 5.583222
mobileNet.Node[47].mobility.updateInterval= 1.000000
mobileNet.Node[47].mobility.debug = 0 

mobileNet.Node[48].mobility.x = 270.000000
mobileNet.Node[48].mobility.y = 150.000000
mobileNet.Node[48].mobility.z = 0
mobileNet.Node[48].normalNic.id = 48
mobileNet.Node[48].normalNic.start_time = 0.012414 
mobileNet.Node[48].mobility.speed= 5.583222
mobileNet.Node[48].mobility.updateInterval= 1.000000
mobileNet.Node[48].mobility.debug = 0 

mobileNet.Node[49].mobility.x = 300.000000
mobileNet.Node[49].mobility.y = 150.000000
mobileNet.Node[49].mobility.z = 0
mobileNet.Node[49].normalNic.id = 49
mobileNet.Node[49].normalNic.start_time = 0.169537 
mobileNet.Node[49].mobility.speed= 5.583222
mobileNet.Node[49].mobility.updateInterval= 1.000000
mobileNet.Node[49].mobility.debug = 0 

mobileNet.Node[50].mobility.x = 30.000000
mobileNet.Node[50].mobility.y = 180.000000
mobileNet.Node[50].mobility.z = 0
mobileNet.Node[50].normalNic.id = 50
mobileNet.Node[50].normalNic.start_time = 0.598203 
mobileNet.Node[50].mobility.speed= 5.583222
mobileNet.Node[50].mobility.updateInterval= 1.000000
mobileNet.Node[50].mobility.debug = 0 

mobileNet.Node[51].mobility.x = 60.000000
mobileNet.Node[51].mobility.y = 180.000000
mobileNet.Node[51].mobility.z = 0
mobileNet.Node[51].normalNic.id = 51
mobileNet.Node[51].normalNic.start_time = 0.614623 
mobileNet.Node[51].mobility.speed= 5.583222
mobileNet.Node[51].mobility.updateInterval= 1.000000
mobileNet.Node[51].mobility.debug = 0 

mobileNet.Node[52].mobility.x = 90.000000
mobileNet.Node[52].mobility.y = 180.000000
mobileNet.Node[52].mobility.z = 0
mobileNet.Node[52].normalNic.id = 52
mobileNet.Node[52].normalNic.start_time = 0.264904 
mobileNet.Node[52].mobility.speed= 5.583222
mobileNet.Node[52].mobility.updateInterval= 1.000000
mobileNet.Node[52].mobility.debug = 0 

mobileNet.Node[53].mobility.x = 120.000000
mobileNet.Node[53].mobility.y = 180.000000
mobileNet.Node[53].mobility.z = 0
mobileNet.Node[53].normalNic.id = 53
mobileNet.Node[53].normalNic.start_time = 0.417149 
mobileNet.Node[53].mobility.speed= 5.583222
mobileNet.Node[53].mobility.updateInterval= 1.000000
mobileNet.Node[53].mobility.debug = 0 

mobileNet.Node[54].mobility.x = 150.000000
mobileNet.Node[54].mobility.y = 180.000000
mobileNet.Node[54].mobility.z = 0
mobileNet.Node[54].normalNic.id = 54
mobileNet.Node[54].normalNic.start_time = 0.436880 
mobileNet.Node[54].mobility.speed= 5.583222
mobileNet.Node[54].mobility.updateInterval= 1.000000
mobileNet.Node[54].mobility.debug = 0 

mobileNet.Node[55].mobility.x = 180.000000
mobileNet.Node[55].mobility.y = 180.000000
mobileNet.Node[55].mobility.z = 0
mobileNet.Node[55].normalNic.id = 55
mobileNet.Node[55].normalNic.start_time = 0.457103 
mobileNet.Node[55].mobility.speed= 5.583222
mobileNet.Node[55].mobility.updateInterval= 1.000000
mobileNet.Node[55].mobility.debug = 0 

mobileNet.Node[56].mobility.x = 210.000000
mobileNet.Node[56].mobility.y = 180.000000
mobileNet.Node[56].mobility.z = 0
mobileNet.Node[56].normalNic.id = 56
mobileNet.Node[56].normalNic.start_time = 0.165835 
mobileNet.Node[56].mobility.speed= 5.583222
mobileNet.Node[56].mobility.updateInterval= 1.000000
mobileNet.Node[56].mobility.debug = 0 

mobileNet.Node[57].mobility.x = 240.000000
mobileNet.Node[57].mobility.y = 180.000000
mobileNet.Node[57].mobility.z = 0
mobileNet.Node[57].normalNic.id = 57
mobileNet.Node[57].normalNic.start_time = 0.964729 
mobileNet.Node[57].mobility.speed= 5.583222
mobileNet.Node[57].mobility.updateInterval= 1.000000
mobileNet.Node[57].mobility.debug = 0 

mobileNet.Node[58].mobility.x = 270.000000
mobileNet.Node[58].mobility.y = 180.000000
mobileNet.Node[58].mobility.z = 0
mobileNet.Node[58].normalNic.id = 58
mobileNet.Node[58].normalNic.start_time = 0.846092 
mobileNet.Node[58].mobility.speed= 5.583222
mobileNet.Node[58].mobility.updateInterval= 1.000000
mobileNet.Node[58].mobility.debug = 0 

mobileNet.Node[59].mobility.x = 300.000000
mobileNet.Node[59].mobility.y = 180.000000
mobileNet.Node[59].mobility.z = 0
mobileNet.Node[59].normalNic.id = 59
mobileNet.Node[59].normalNic.start_time = 0.204943 
mobileNet.Node[59].mobility.speed= 5.583222
mobileNet.Node[59].mobility.updateInterval= 1.000000
mobileNet.Node[59].mobility.debug = 0 

mobileNet.Node[60].mobility.x = 30.000000
mobileNet.Node[60].mobility.y = 210.000000
mobileNet.Node[60].mobility.z = 0
mobileNet.Node[60].normalNic.id = 60
mobileNet.Node[60].normalNic.start_time = 0.454698 
mobileNet.Node[60].mobility.speed= 5.583222
mobileNet.Node[60].mobility.updateInterval= 1.000000
mobileNet.Node[60].mobility.debug = 0 

mobileNet.Node[61].mobility.x = 60.000000
mobileNet.Node[61].mobility.y = 210.000000
mobileNet.Node[61].mobility.z = 0
mobileNet.Node[61].normalNic.id = 61
mobileNet.Node[61].normalNic.start_time = 0.176469 
mobileNet.Node[61].mobility.speed= 5.583222
mobileNet.Node[61].mobility.updateInterval= 1.000000
mobileNet.Node[61].mobility.debug = 0 

mobileNet.Node[62].mobility.x = 90.000000
mobileNet.Node[62].mobility.y = 210.000000
mobileNet.Node[62].mobility.z = 0
mobileNet.Node[62].normalNic.id = 62
mobileNet.Node[62].normalNic.start_time = 0.977174 
mobileNet.Node[62].mobility.speed= 5.583222
mobileNet.Node[62].mobility.updateInterval= 1.000000
mobileNet.Node[62].mobility.debug = 0 

mobileNet.Node[63].mobility.x = 120.000000
mobileNet.Node[63].mobility.y = 210.000000
mobileNet.Node[63].mobility.z = 0
mobileNet.Node[63].normalNic.id = 63
mobileNet.Node[63].normalNic.start_time = 0.387034 
mobileNet.Node[63].mobility.speed= 5.583222
mobileNet.Node[63].mobility.updateInterval= 1.000000
mobileNet.Node[63].mobility.debug = 0 

mobileNet.Node[64].mobility.x = 150.000000
mobileNet.Node[64].mobility.y = 210.000000
mobileNet.Node[64].mobility.z = 0
mobileNet.Node[64].normalNic.id = 64
mobileNet.Node[64].normalNic.start_time = 0.842728 
mobileNet.Node[64].mobility.speed= 5.583222
mobileNet.Node[64].mobility.updateInterval= 1.000000
mobileNet.Node[64].mobility.debug = 0 

mobileNet.Node[65].mobility.x = 180.000000
mobileNet.Node[65].mobility.y = 210.000000
mobileNet.Node[65].mobility.z = 0
mobileNet.Node[65].normalNic.id = 65
mobileNet.Node[65].normalNic.start_time = 0.543765 
mobileNet.Node[65].mobility.speed= 5.583222
mobileNet.Node[65].mobility.updateInterval= 1.000000
mobileNet.Node[65].mobility.debug = 0 

mobileNet.Node[66].mobility.x = 210.000000
mobileNet.Node[66].mobility.y = 210.000000
mobileNet.Node[66].mobility.z = 0
mobileNet.Node[66].normalNic.id = 66
mobileNet.Node[66].normalNic.start_time = 0.640251 
mobileNet.Node[66].mobility.speed= 5.583222
mobileNet.Node[66].mobility.updateInterval= 1.000000
mobileNet.Node[66].mobility.debug = 0 

mobileNet.Node[67].mobility.x = 240.000000
mobileNet.Node[67].mobility.y = 210.000000
mobileNet.Node[67].mobility.z = 0
mobileNet.Node[67].normalNic.id = 67
mobileNet.Node[67].normalNic.start_time = 0.459845 
mobileNet.Node[67].mobility.speed= 5.583222
mobileNet.Node[67].mobility.updateInterval= 1.000000
mobileNet.Node[67].mobility.debug = 0 

mobileNet.Node[68].mobility.x = 270.000000
mobileNet.Node[68].mobility.y = 210.000000
mobileNet.Node[68].mobility.z = 0
mobileNet.Node[68].normalNic.id = 68
mobileNet.Node[68].normalNic.start_time = 0.889693 
mobileNet.Node[68].mobility.speed= 5.583222
mobileNet.Node[68].mobility.updateInterval= 1.000000
mobileNet.Node[68].mobility.debug = 0 

mobileNet.Node[69].mobility.x = 300.000000
mobileNet.Node[69].mobility.y = 210.000000
mobileNet.Node[69].mobility.z = 0
mobileNet.Node[69].normalNic.id = 69
mobileNet.Node[69].normalNic.start_time = 0.215997 
mobileNet.Node[69].mobility.speed= 5.583222
mobileNet.Node[69].mobility.updateInterval= 1.000000
mobileNet.Node[69].mobility.debug = 0 

mobileNet.Node[70].mobility.x = 30.000000
mobileNet.Node[70].mobility.y = 240.000000
mobileNet.Node[70].mobility.z = 0
mobileNet.Node[70].normalNic.id = 70
mobileNet.Node[70].normalNic.start_time = 0.548064 
mobileNet.Node[70].mobility.speed= 5.583222
mobileNet.Node[70].mobility.updateInterval= 1.000000
mobileNet.Node[70].mobility.debug = 0 

mobileNet.Node[71].mobility.x = 60.000000
mobileNet.Node[71].mobility.y = 240.000000
mobileNet.Node[71].mobility.z = 0
mobileNet.Node[71].normalNic.id = 71
mobileNet.Node[71].normalNic.start_time = 0.141784 
mobileNet.Node[71].mobility.speed= 5.583222
mobileNet.Node[71].mobility.updateInterval= 1.000000
mobileNet.Node[71].mobility.debug = 0 

mobileNet.Node[72].mobility.x = 90.000000
mobileNet.Node[72].mobility.y = 240.000000
mobileNet.Node[72].mobility.z = 0
mobileNet.Node[72].normalNic.id = 72
mobileNet.Node[72].normalNic.start_time = 0.327647 
mobileNet.Node[72].mobility.speed= 5.583222
mobileNet.Node[72].mobility.updateInterval= 1.000000
mobileNet.Node[72].mobility.debug = 0 

mobileNet.Node[73].mobility.x = 120.000000
mobileNet.Node[73].mobility.y = 240.000000
mobileNet.Node[73].mobility.z = 0
mobileNet.Node[73].normalNic.id = 73
mobileNet.Node[73].normalNic.start_time = 0.214402 
mobileNet.Node[73].mobility.speed= 5.583222
mobileNet.Node[73].mobility.updateInterval= 1.000000
mobileNet.Node[73].mobility.debug = 0 

mobileNet.Node[74].mobility.x = 150.000000
mobileNet.Node[74].mobility.y = 240.000000
mobileNet.Node[74].mobility.z = 0
mobileNet.Node[74].normalNic.id = 74
mobileNet.Node[74].normalNic.start_time = 0.361646 
mobileNet.Node[74].mobility.speed= 5.583222
mobileNet.Node[74].mobility.updateInterval= 1.000000
mobileNet.Node[74].mobility.debug = 0 

mobileNet.Node[75].mobility.x = 180.000000
mobileNet.Node[75].mobility.y = 240.000000
mobileNet.Node[75].mobility.z = 0
mobileNet.Node[75].normalNic.id = 75
mobileNet.Node[75].normalNic.start_time = 0.786913 
mobileNet.Node[75].mobility.speed= 5.583222
mobileNet.Node[75].mobility.updateInterval= 1.000000
mobileNet.Node[75].mobility.debug = 0 

mobileNet.Node[76].mobility.x = 210.000000
mobileNet.Node[76].mobility.y = 240.000000
mobileNet.Node[76].mobility.z = 0
mobileNet.Node[76].normalNic.id = 76
mobileNet.Node[76].normalNic.start_time = 0.501148 
mobileNet.Node[76].mobility.speed= 5.583222
mobileNet.Node[76].mobility.updateInterval= 1.000000
mobileNet.Node[76].mobility.debug = 0 

mobileNet.Node[77].mobility.x = 240.000000
mobileNet.Node[77].mobility.y = 240.000000
mobileNet.Node[77].mobility.z = 0
mobileNet.Node[77].normalNic.id = 77
mobileNet.Node[77].normalNic.start_time = 0.425764 
mobileNet.Node[77].mobility.speed= 5.583222
mobileNet.Node[77].mobility.updateInterval= 1.000000
mobileNet.Node[77].mobility.debug = 0 

mobileNet.Node[78].mobility.x = 270.000000
mobileNet.Node[78].mobility.y = 240.000000
mobileNet.Node[78].mobility.z = 0
mobileNet.Node[78].normalNic.id = 78
mobileNet.Node[78].normalNic.start_time = 0.629964 
mobileNet.Node[78].mobility.speed= 5.583222
mobileNet.Node[78].mobility.updateInterval= 1.000000
mobileNet.Node[78].mobility.debug = 0 

mobileNet.Node[79].mobility.x = 300.000000
mobileNet.Node[79].mobility.y = 240.000000
mobileNet.Node[79].mobility.z = 0
mobileNet.Node[79].normalNic.id = 79
mobileNet.Node[79].normalNic.start_time = 0.818495 
mobileNet.Node[79].mobility.speed= 5.583222
mobileNet.Node[79].mobility.updateInterval= 1.000000
mobileNet.Node[79].mobility.debug = 0 

mobileNet.Node[80].mobility.x = 30.000000
mobileNet.Node[80].mobility.y = 270.000000
mobileNet.Node[80].mobility.z = 0
mobileNet.Node[80].normalNic.id = 80
mobileNet.Node[80].normalNic.start_time = 0.281836 
mobileNet.Node[80].mobility.speed= 5.583222
mobileNet.Node[80].mobility.updateInterval= 1.000000
mobileNet.Node[80].mobility.debug = 0 
