[General]
preload-ned-files = *.ned @nedincludes.lst
network = mobileNet
sim-time-limit = 1000

[Cmdenv]
express-mode = yes
[Parameters]
##############################
# Simulation parameters #
##############################
mobileNet.**.coreDebug = 0
mobileNet.playgroundSizeX = 242
mobileNet.playgroundSizeY = 242
mobileNet.playgroundSizeZ = 0
mobileNet.numHosts = 50 
mobileNet.Node[*].normalNic.jump = 1 
mobileNet.Node[*].normalNic.algorithm = 4 
mobileNet.Node[*].normalNic.gain = 0.750000 
mobileNet.Node[*].normalNic.hosts = 50 

##############################
# World Utility Parameters #
##############################
mobileNet.world.useTorus = 0
mobileNet.world.use2D = 0

##############################
# Channel Parameters #
##############################
mobileNet.Channel.coreDebug = 0
mobileNet.Channel.sendDirect = 0
mobileNet.Channel.pMax = 4
mobileNet.Channel.sat = -82
mobileNet.Channel.alpha = 2.500000
mobileNet.Channel.carrierFrequency = 2.45e+9

##############################
# Host specific Parameters #
##############################
mobileNet.*Node*.utility.coreDebug = 0

##############################
# Physical Layer Parameters #
##############################
mobileNet.Node[*].normalNic.phy.usePropagationDelay = true
mobileNet.Node[*].normalNic.phy.thermalNoise = 1.0
mobileNet.Node[*].normalNic.phy.analogueModels = xmldoc("config.xml")
mobileNet.Node[*].normalNic.phy.decider = xmldoc("config.xml")
mobileNet.Node[*].normalNic.phy.timeRXToTX = 0.01
mobileNet.Node[*].normalNic.phy.timeRXToSleep = 0.015
mobileNet.Node[*].normalNic.phy.timeTXToRX = 0.02
mobileNet.Node[*].normalNic.phy.timeTXToSleep = 0.025
mobileNet.Node[*].normalNic.phy.timeSleepToRX = 0.03
mobileNet.Node[*].normalNic.phy.sensitivity = 0.2
mobileNet.Node[*].normalNic.phy.maxTXPower = 20.0
mobileNet.Node[*].normalNic.phy.timeSleepToTX = 0.035

##############################
# Host Parameters #
##############################
mobileNet.Node[*].normalNic.connectionManagerName = "Channel"
mobileNet.Node[*].mobility.angle = 2
mobileNet.Node[*].mobility.acceleration = 2 
mobileNet.Node[0].mobility.x = 30.000000
mobileNet.Node[0].mobility.y = 30.000000
mobileNet.Node[0].mobility.z = 0
mobileNet.Node[0].normalNic.id = 0
mobileNet.Node[0].normalNic.start_time = 0.287691 
mobileNet.Node[1].mobility.x = 60.000000
mobileNet.Node[1].mobility.y = 30.000000
mobileNet.Node[1].mobility.z = 0
mobileNet.Node[1].normalNic.id = 1
mobileNet.Node[1].normalNic.start_time = 0.116379 
mobileNet.Node[2].mobility.x = 90.000000
mobileNet.Node[2].mobility.y = 30.000000
mobileNet.Node[2].mobility.z = 0
mobileNet.Node[2].normalNic.id = 2
mobileNet.Node[2].normalNic.start_time = 0.353673 
mobileNet.Node[3].mobility.x = 120.000000
mobileNet.Node[3].mobility.y = 30.000000
mobileNet.Node[3].mobility.z = 0
mobileNet.Node[3].normalNic.id = 3
mobileNet.Node[3].normalNic.start_time = 0.167313 
mobileNet.Node[4].mobility.x = 150.000000
mobileNet.Node[4].mobility.y = 30.000000
mobileNet.Node[4].mobility.z = 0
mobileNet.Node[4].normalNic.id = 4
mobileNet.Node[4].normalNic.start_time = 0.758070 
mobileNet.Node[5].mobility.x = 180.000000
mobileNet.Node[5].mobility.y = 30.000000
mobileNet.Node[5].mobility.z = 0
mobileNet.Node[5].normalNic.id = 5
mobileNet.Node[5].normalNic.start_time = 0.105157 
mobileNet.Node[6].mobility.x = 210.000000
mobileNet.Node[6].mobility.y = 30.000000
mobileNet.Node[6].mobility.z = 0
mobileNet.Node[6].normalNic.id = 6
mobileNet.Node[6].normalNic.start_time = 0.800872 
mobileNet.Node[7].mobility.x = 30.000000
mobileNet.Node[7].mobility.y = 60.000000
mobileNet.Node[7].mobility.z = 0
mobileNet.Node[7].normalNic.id = 7
mobileNet.Node[7].normalNic.start_time = 0.032890 
mobileNet.Node[8].mobility.x = 60.000000
mobileNet.Node[8].mobility.y = 60.000000
mobileNet.Node[8].mobility.z = 0
mobileNet.Node[8].normalNic.id = 8
mobileNet.Node[8].normalNic.start_time = 0.181341 
mobileNet.Node[9].mobility.x = 90.000000
mobileNet.Node[9].mobility.y = 60.000000
mobileNet.Node[9].mobility.z = 0
mobileNet.Node[9].normalNic.id = 9
mobileNet.Node[9].normalNic.start_time = 0.641807 
mobileNet.Node[10].mobility.x = 120.000000
mobileNet.Node[10].mobility.y = 60.000000
mobileNet.Node[10].mobility.z = 0
mobileNet.Node[10].normalNic.id = 10
mobileNet.Node[10].normalNic.start_time = 0.663146 
mobileNet.Node[11].mobility.x = 150.000000
mobileNet.Node[11].mobility.y = 60.000000
mobileNet.Node[11].mobility.z = 0
mobileNet.Node[11].normalNic.id = 11
mobileNet.Node[11].normalNic.start_time = 0.613957 
mobileNet.Node[12].mobility.x = 180.000000
mobileNet.Node[12].mobility.y = 60.000000
mobileNet.Node[12].mobility.z = 0
mobileNet.Node[12].normalNic.id = 12
mobileNet.Node[12].normalNic.start_time = 0.417459 
mobileNet.Node[13].mobility.x = 210.000000
mobileNet.Node[13].mobility.y = 60.000000
mobileNet.Node[13].mobility.z = 0
mobileNet.Node[13].normalNic.id = 13
mobileNet.Node[13].normalNic.start_time = 0.021357 
mobileNet.Node[14].mobility.x = 30.000000
mobileNet.Node[14].mobility.y = 90.000000
mobileNet.Node[14].mobility.z = 0
mobileNet.Node[14].normalNic.id = 14
mobileNet.Node[14].normalNic.start_time = 0.595655 
mobileNet.Node[15].mobility.x = 60.000000
mobileNet.Node[15].mobility.y = 90.000000
mobileNet.Node[15].mobility.z = 0
mobileNet.Node[15].normalNic.id = 15
mobileNet.Node[15].normalNic.start_time = 0.209023 
mobileNet.Node[16].mobility.x = 90.000000
mobileNet.Node[16].mobility.y = 90.000000
mobileNet.Node[16].mobility.z = 0
mobileNet.Node[16].normalNic.id = 16
mobileNet.Node[16].normalNic.start_time = 0.349383 
mobileNet.Node[17].mobility.x = 120.000000
mobileNet.Node[17].mobility.y = 90.000000
mobileNet.Node[17].mobility.z = 0
mobileNet.Node[17].normalNic.id = 17
mobileNet.Node[17].normalNic.start_time = 0.991614 
mobileNet.Node[18].mobility.x = 150.000000
mobileNet.Node[18].mobility.y = 90.000000
mobileNet.Node[18].mobility.z = 0
mobileNet.Node[18].normalNic.id = 18
mobileNet.Node[18].normalNic.start_time = 0.269392 
mobileNet.Node[19].mobility.x = 180.000000
mobileNet.Node[19].mobility.y = 90.000000
mobileNet.Node[19].mobility.z = 0
mobileNet.Node[19].normalNic.id = 19
mobileNet.Node[19].normalNic.start_time = 0.949370 
mobileNet.Node[20].mobility.x = 210.000000
mobileNet.Node[20].mobility.y = 90.000000
mobileNet.Node[20].mobility.z = 0
mobileNet.Node[20].normalNic.id = 20
mobileNet.Node[20].normalNic.start_time = 0.646191 
mobileNet.Node[21].mobility.x = 30.000000
mobileNet.Node[21].mobility.y = 120.000000
mobileNet.Node[21].mobility.z = 0
mobileNet.Node[21].normalNic.id = 21
mobileNet.Node[21].normalNic.start_time = 0.716709 
mobileNet.Node[22].mobility.x = 60.000000
mobileNet.Node[22].mobility.y = 120.000000
mobileNet.Node[22].mobility.z = 0
mobileNet.Node[22].normalNic.id = 22
mobileNet.Node[22].normalNic.start_time = 0.107766 
mobileNet.Node[23].mobility.x = 90.000000
mobileNet.Node[23].mobility.y = 120.000000
mobileNet.Node[23].mobility.z = 0
mobileNet.Node[23].normalNic.id = 23
mobileNet.Node[23].normalNic.start_time = 0.081689 
mobileNet.Node[24].mobility.x = 120.000000
mobileNet.Node[24].mobility.y = 120.000000
mobileNet.Node[24].mobility.z = 0
mobileNet.Node[24].normalNic.id = 24
mobileNet.Node[24].normalNic.start_time = 0.563642 
mobileNet.Node[25].mobility.x = 150.000000
mobileNet.Node[25].mobility.y = 120.000000
mobileNet.Node[25].mobility.z = 0
mobileNet.Node[25].normalNic.id = 25
mobileNet.Node[25].normalNic.start_time = 0.310442 
mobileNet.Node[26].mobility.x = 180.000000
mobileNet.Node[26].mobility.y = 120.000000
mobileNet.Node[26].mobility.z = 0
mobileNet.Node[26].normalNic.id = 26
mobileNet.Node[26].normalNic.start_time = 0.632598 
mobileNet.Node[27].mobility.x = 210.000000
mobileNet.Node[27].mobility.y = 120.000000
mobileNet.Node[27].mobility.z = 0
mobileNet.Node[27].normalNic.id = 27
mobileNet.Node[27].normalNic.start_time = 0.696434 
mobileNet.Node[28].mobility.x = 30.000000
mobileNet.Node[28].mobility.y = 150.000000
mobileNet.Node[28].mobility.z = 0
mobileNet.Node[28].normalNic.id = 28
mobileNet.Node[28].normalNic.start_time = 0.397791 
mobileNet.Node[29].mobility.x = 60.000000
mobileNet.Node[29].mobility.y = 150.000000
mobileNet.Node[29].mobility.z = 0
mobileNet.Node[29].normalNic.id = 29
mobileNet.Node[29].normalNic.start_time = 0.415022 
mobileNet.Node[30].mobility.x = 90.000000
mobileNet.Node[30].mobility.y = 150.000000
mobileNet.Node[30].mobility.z = 0
mobileNet.Node[30].normalNic.id = 30
mobileNet.Node[30].normalNic.start_time = 0.214631 
mobileNet.Node[31].mobility.x = 120.000000
mobileNet.Node[31].mobility.y = 150.000000
mobileNet.Node[31].mobility.z = 0
mobileNet.Node[31].normalNic.id = 31
mobileNet.Node[31].normalNic.start_time = 0.797329 
mobileNet.Node[32].mobility.x = 150.000000
mobileNet.Node[32].mobility.y = 150.000000
mobileNet.Node[32].mobility.z = 0
mobileNet.Node[32].normalNic.id = 32
mobileNet.Node[32].normalNic.start_time = 0.019569 
mobileNet.Node[33].mobility.x = 180.000000
mobileNet.Node[33].mobility.y = 150.000000
mobileNet.Node[33].mobility.z = 0
mobileNet.Node[33].normalNic.id = 33
mobileNet.Node[33].normalNic.start_time = 0.873613 
mobileNet.Node[34].mobility.x = 210.000000
mobileNet.Node[34].mobility.y = 150.000000
mobileNet.Node[34].mobility.z = 0
mobileNet.Node[34].normalNic.id = 34
mobileNet.Node[34].normalNic.start_time = 0.618988 
mobileNet.Node[35].mobility.x = 30.000000
mobileNet.Node[35].mobility.y = 180.000000
mobileNet.Node[35].mobility.z = 0
mobileNet.Node[35].normalNic.id = 35
mobileNet.Node[35].normalNic.start_time = 0.302134 
mobileNet.Node[36].mobility.x = 60.000000
mobileNet.Node[36].mobility.y = 180.000000
mobileNet.Node[36].mobility.z = 0
mobileNet.Node[36].normalNic.id = 36
mobileNet.Node[36].normalNic.start_time = 0.158580 
mobileNet.Node[37].mobility.x = 90.000000
mobileNet.Node[37].mobility.y = 180.000000
mobileNet.Node[37].mobility.z = 0
mobileNet.Node[37].normalNic.id = 37
mobileNet.Node[37].normalNic.start_time = 0.547255 
mobileNet.Node[38].mobility.x = 120.000000
mobileNet.Node[38].mobility.y = 180.000000
mobileNet.Node[38].mobility.z = 0
mobileNet.Node[38].normalNic.id = 38
mobileNet.Node[38].normalNic.start_time = 0.595862 
mobileNet.Node[39].mobility.x = 150.000000
mobileNet.Node[39].mobility.y = 180.000000
mobileNet.Node[39].mobility.z = 0
mobileNet.Node[39].normalNic.id = 39
mobileNet.Node[39].normalNic.start_time = 0.994626 
mobileNet.Node[40].mobility.x = 180.000000
mobileNet.Node[40].mobility.y = 180.000000
mobileNet.Node[40].mobility.z = 0
mobileNet.Node[40].normalNic.id = 40
mobileNet.Node[40].normalNic.start_time = 0.185668 
mobileNet.Node[41].mobility.x = 210.000000
mobileNet.Node[41].mobility.y = 180.000000
mobileNet.Node[41].mobility.z = 0
mobileNet.Node[41].normalNic.id = 41
mobileNet.Node[41].normalNic.start_time = 0.952263 
mobileNet.Node[42].mobility.x = 30.000000
mobileNet.Node[42].mobility.y = 210.000000
mobileNet.Node[42].mobility.z = 0
mobileNet.Node[42].normalNic.id = 42
mobileNet.Node[42].normalNic.start_time = 0.922087 
mobileNet.Node[43].mobility.x = 60.000000
mobileNet.Node[43].mobility.y = 210.000000
mobileNet.Node[43].mobility.z = 0
mobileNet.Node[43].normalNic.id = 43
mobileNet.Node[43].normalNic.start_time = 0.862592 
mobileNet.Node[44].mobility.x = 90.000000
mobileNet.Node[44].mobility.y = 210.000000
mobileNet.Node[44].mobility.z = 0
mobileNet.Node[44].normalNic.id = 44
mobileNet.Node[44].normalNic.start_time = 0.928281 
mobileNet.Node[45].mobility.x = 120.000000
mobileNet.Node[45].mobility.y = 210.000000
mobileNet.Node[45].mobility.z = 0
mobileNet.Node[45].normalNic.id = 45
mobileNet.Node[45].normalNic.start_time = 0.335102 
mobileNet.Node[46].mobility.x = 150.000000
mobileNet.Node[46].mobility.y = 210.000000
mobileNet.Node[46].mobility.z = 0
mobileNet.Node[46].normalNic.id = 46
mobileNet.Node[46].normalNic.start_time = 0.613496 
mobileNet.Node[47].mobility.x = 180.000000
mobileNet.Node[47].mobility.y = 210.000000
mobileNet.Node[47].mobility.z = 0
mobileNet.Node[47].normalNic.id = 47
mobileNet.Node[47].normalNic.start_time = 0.939748 
mobileNet.Node[48].mobility.x = 210.000000
mobileNet.Node[48].mobility.y = 210.000000
mobileNet.Node[48].mobility.z = 0
mobileNet.Node[48].normalNic.id = 48
mobileNet.Node[48].normalNic.start_time = 0.572257 
mobileNet.Node[49].mobility.x = 30.000000
mobileNet.Node[49].mobility.y = 240.000000
mobileNet.Node[49].mobility.z = 0
mobileNet.Node[49].normalNic.id = 49
mobileNet.Node[49].normalNic.start_time = 0.456827 
mobileNet.Node[*].mobility.speed= 5.555556
mobileNet.Node[*].mobility.updateInterval= 1.000000
mobileNet.Node[*].mobility.debug = 0 

