[General]
preload-ned-files = *.ned @nedincludes.lst
network = mobileNet
sim-time-limit = 1000

[Cmdenv]
express-mode = yes
[Parameters]
##############################
# Simulation parameters #
##############################
mobileNet.**.coreDebug = 0
mobileNet.playgroundSizeX = 547
mobileNet.playgroundSizeY = 547
mobileNet.playgroundSizeZ = 0
mobileNet.numHosts = 20 
mobileNet.Node[*].normalNic.jump = 1 
mobileNet.Node[*].normalNic.algorithm = 2 
mobileNet.Node[*].normalNic.gain = 0.750000 
mobileNet.Node[*].normalNic.hosts = 20 

##############################
# World Utility Parameters #
##############################
mobileNet.world.useTorus = 0
mobileNet.world.use2D = 0

##############################
# Channel Parameters #
##############################
mobileNet.Channel.coreDebug = 0
mobileNet.Channel.sendDirect = 0
= 0
mobileNet.Channel.pMax = 20
mobileNet.Channel.sat = -82
mobileNet.Channel.alpha = 2.500000
mobileNet.Channel.carrierFrequency = 2.45e+9

##############################
# Host specific Parameters #
##############################
mobileNet.*Node*.utility.coreDebug = 0

##############################
# Physical Layer Parameters #
##############################
mobileNet.Node[*].normalNic.phy.usePropagationDelay = true
mobileNet.Node[*].normalNic.phy.thermalNoise = 1.0
mobileNet.Node[*].normalNic.phy.analogueModels = xmldoc("config.xml")
mobileNet.Node[*].normalNic.phy.decider = xmldoc("config.xml")
mobileNet.Node[*].normalNic.phy.timeRXToTX = 0.01
mobileNet.Node[*].normalNic.phy.timeRXToSleep = 0.015
mobileNet.Node[*].normalNic.phy.timeTXToRX = 0.02
mobileNet.Node[*].normalNic.phy.timeTXToSleep = 0.025
mobileNet.Node[*].normalNic.phy.timeSleepToRX = 0.03
mobileNet.Node[*].normalNic.phy.sensitivity = 0.2
mobileNet.Node[*].normalNic.phy.maxTXPower = 20.0
mobileNet.Node[*].normalNic.phy.timeSleepToTX = 0.035

##############################
# Host Parameters #
##############################
mobileNet.Node[*].normalNic.connectionManagerName = "Channel"
mobileNet.Node[*].mobility.angle = 2
mobileNet.Node[*].mobility.acceleration = 2 
mobileNet.Node[0].mobility.x = 100.000000
mobileNet.Node[0].mobility.y = 100.000000
mobileNet.Node[0].mobility.z = 0
mobileNet.Node[0].normalNic.id = 0
mobileNet.Node[0].normalNic.start_time = 0.789672 
mobileNet.Node[1].mobility.x = 200.000000
mobileNet.Node[1].mobility.y = 100.000000
mobileNet.Node[1].mobility.z = 0
mobileNet.Node[1].normalNic.id = 1
mobileNet.Node[1].normalNic.start_time = 0.408957 
mobileNet.Node[2].mobility.x = 300.000000
mobileNet.Node[2].mobility.y = 100.000000
mobileNet.Node[2].mobility.z = 0
mobileNet.Node[2].normalNic.id = 2
mobileNet.Node[2].normalNic.start_time = 0.981727 
mobileNet.Node[3].mobility.x = 400.000000
mobileNet.Node[3].mobility.y = 100.000000
mobileNet.Node[3].mobility.z = 0
mobileNet.Node[3].normalNic.id = 3
mobileNet.Node[3].normalNic.start_time = 0.255884 
mobileNet.Node[4].mobility.x = 500.000000
mobileNet.Node[4].mobility.y = 100.000000
mobileNet.Node[4].mobility.z = 0
mobileNet.Node[4].normalNic.id = 4
mobileNet.Node[4].normalNic.start_time = 0.405660 
mobileNet.Node[5].mobility.x = 600.000000
mobileNet.Node[5].mobility.y = 100.000000
mobileNet.Node[5].mobility.z = 0
mobileNet.Node[5].normalNic.id = 5
mobileNet.Node[5].normalNic.start_time = 0.034837 
mobileNet.Node[6].mobility.x = 700.000000
mobileNet.Node[6].mobility.y = 100.000000
mobileNet.Node[6].mobility.z = 0
mobileNet.Node[6].normalNic.id = 6
mobileNet.Node[6].normalNic.start_time = 0.844175 
mobileNet.Node[7].mobility.x = 800.000000
mobileNet.Node[7].mobility.y = 100.000000
mobileNet.Node[7].mobility.z = 0
mobileNet.Node[7].normalNic.id = 7
mobileNet.Node[7].normalNic.start_time = 0.329392 
mobileNet.Node[8].mobility.x = 900.000000
mobileNet.Node[8].mobility.y = 100.000000
mobileNet.Node[8].mobility.z = 0
mobileNet.Node[8].normalNic.id = 8
mobileNet.Node[8].normalNic.start_time = 0.823209 
mobileNet.Node[9].mobility.x = 1000.000000
mobileNet.Node[9].mobility.y = 100.000000
mobileNet.Node[9].mobility.z = 0
mobileNet.Node[9].normalNic.id = 9
mobileNet.Node[9].normalNic.start_time = 0.491569 
mobileNet.Node[10].mobility.x = 100.000000
mobileNet.Node[10].mobility.y = 200.000000
mobileNet.Node[10].mobility.z = 0
mobileNet.Node[10].normalNic.id = 10
mobileNet.Node[10].normalNic.start_time = 0.669185 
mobileNet.Node[11].mobility.x = 200.000000
mobileNet.Node[11].mobility.y = 200.000000
mobileNet.Node[11].mobility.z = 0
mobileNet.Node[11].normalNic.id = 11
mobileNet.Node[11].normalNic.start_time = 0.496442 
mobileNet.Node[12].mobility.x = 300.000000
mobileNet.Node[12].mobility.y = 200.000000
mobileNet.Node[12].mobility.z = 0
mobileNet.Node[12].normalNic.id = 12
mobileNet.Node[12].normalNic.start_time = 0.217412 
mobileNet.Node[13].mobility.x = 400.000000
mobileNet.Node[13].mobility.y = 200.000000
mobileNet.Node[13].mobility.z = 0
mobileNet.Node[13].normalNic.id = 13
mobileNet.Node[13].normalNic.start_time = 0.126455 
mobileNet.Node[14].mobility.x = 500.000000
mobileNet.Node[14].mobility.y = 200.000000
mobileNet.Node[14].mobility.z = 0
mobileNet.Node[14].normalNic.id = 14
mobileNet.Node[14].normalNic.start_time = 0.832853 
mobileNet.Node[15].mobility.x = 600.000000
mobileNet.Node[15].mobility.y = 200.000000
mobileNet.Node[15].mobility.z = 0
mobileNet.Node[15].normalNic.id = 15
mobileNet.Node[15].normalNic.start_time = 0.876971 
mobileNet.Node[16].mobility.x = 700.000000
mobileNet.Node[16].mobility.y = 200.000000
mobileNet.Node[16].mobility.z = 0
mobileNet.Node[16].normalNic.id = 16
mobileNet.Node[16].normalNic.start_time = 0.606436 
mobileNet.Node[17].mobility.x = 800.000000
mobileNet.Node[17].mobility.y = 200.000000
mobileNet.Node[17].mobility.z = 0
mobileNet.Node[17].normalNic.id = 17
mobileNet.Node[17].normalNic.start_time = 0.003603 
mobileNet.Node[18].mobility.x = 900.000000
mobileNet.Node[18].mobility.y = 200.000000
mobileNet.Node[18].mobility.z = 0
mobileNet.Node[18].normalNic.id = 18
mobileNet.Node[18].normalNic.start_time = 0.667880 
mobileNet.Node[19].mobility.x = 1000.000000
mobileNet.Node[19].mobility.y = 200.000000
mobileNet.Node[19].mobility.z = 0
mobileNet.Node[19].normalNic.id = 19
mobileNet.Node[19].normalNic.start_time = 0.666704 
mobileNet.Node[20].mobility.x = 100.000000
mobileNet.Node[20].mobility.y = 300.000000
mobileNet.Node[20].mobility.z = 0
mobileNet.Node[20].normalNic.id = 20
mobileNet.Node[20].normalNic.start_time = 0.915453 
mobileNet.Node[21].mobility.x = 200.000000
mobileNet.Node[21].mobility.y = 300.000000
mobileNet.Node[21].mobility.z = 0
mobileNet.Node[21].normalNic.id = 21
mobileNet.Node[21].normalNic.start_time = 0.077025 
mobileNet.Node[22].mobility.x = 300.000000
mobileNet.Node[22].mobility.y = 300.000000
mobileNet.Node[22].mobility.z = 0
mobileNet.Node[22].normalNic.id = 22
mobileNet.Node[22].normalNic.start_time = 0.824462 
mobileNet.Node[23].mobility.x = 400.000000
mobileNet.Node[23].mobility.y = 300.000000
mobileNet.Node[23].mobility.z = 0
mobileNet.Node[23].normalNic.id = 23
mobileNet.Node[23].normalNic.start_time = 0.136539 
mobileNet.Node[24].mobility.x = 500.000000
mobileNet.Node[24].mobility.y = 300.000000
mobileNet.Node[24].mobility.z = 0
mobileNet.Node[24].normalNic.id = 24
mobileNet.Node[24].normalNic.start_time = 0.953977 
mobileNet.Node[25].mobility.x = 600.000000
mobileNet.Node[25].mobility.y = 300.000000
mobileNet.Node[25].mobility.z = 0
mobileNet.Node[25].normalNic.id = 25
mobileNet.Node[25].normalNic.start_time = 0.927198 
mobileNet.Node[26].mobility.x = 700.000000
mobileNet.Node[26].mobility.y = 300.000000
mobileNet.Node[26].mobility.z = 0
mobileNet.Node[26].normalNic.id = 26
mobileNet.Node[26].normalNic.start_time = 0.954263 
mobileNet.Node[27].mobility.x = 800.000000
mobileNet.Node[27].mobility.y = 300.000000
mobileNet.Node[27].mobility.z = 0
mobileNet.Node[27].normalNic.id = 27
mobileNet.Node[27].normalNic.start_time = 0.492221 
mobileNet.Node[28].mobility.x = 900.000000
mobileNet.Node[28].mobility.y = 300.000000
mobileNet.Node[28].mobility.z = 0
mobileNet.Node[28].normalNic.id = 28
mobileNet.Node[28].normalNic.start_time = 0.509187 
mobileNet.Node[29].mobility.x = 1000.000000
mobileNet.Node[29].mobility.y = 300.000000
mobileNet.Node[29].mobility.z = 0
mobileNet.Node[29].normalNic.id = 29
mobileNet.Node[29].normalNic.start_time = 0.612008 
mobileNet.Node[30].mobility.x = 100.000000
mobileNet.Node[30].mobility.y = 400.000000
mobileNet.Node[30].mobility.z = 0
mobileNet.Node[30].normalNic.id = 30
mobileNet.Node[30].normalNic.start_time = 0.290051 
mobileNet.Node[31].mobility.x = 200.000000
mobileNet.Node[31].mobility.y = 400.000000
mobileNet.Node[31].mobility.z = 0
mobileNet.Node[31].normalNic.id = 31
mobileNet.Node[31].normalNic.start_time = 0.391272 
mobileNet.Node[32].mobility.x = 300.000000
mobileNet.Node[32].mobility.y = 400.000000
mobileNet.Node[32].mobility.z = 0
mobileNet.Node[32].normalNic.id = 32
mobileNet.Node[32].normalNic.start_time = 0.942025 
mobileNet.Node[33].mobility.x = 400.000000
mobileNet.Node[33].mobility.y = 400.000000
mobileNet.Node[33].mobility.z = 0
mobileNet.Node[33].normalNic.id = 33
mobileNet.Node[33].normalNic.start_time = 0.423407 
mobileNet.Node[34].mobility.x = 500.000000
mobileNet.Node[34].mobility.y = 400.000000
mobileNet.Node[34].mobility.z = 0
mobileNet.Node[34].normalNic.id = 34
mobileNet.Node[34].normalNic.start_time = 0.553870 
mobileNet.Node[35].mobility.x = 600.000000
mobileNet.Node[35].mobility.y = 400.000000
mobileNet.Node[35].mobility.z = 0
mobileNet.Node[35].normalNic.id = 35
mobileNet.Node[35].normalNic.start_time = 0.716275 
mobileNet.Node[36].mobility.x = 700.000000
mobileNet.Node[36].mobility.y = 400.000000
mobileNet.Node[36].mobility.z = 0
mobileNet.Node[36].normalNic.id = 36
mobileNet.Node[36].normalNic.start_time = 0.863992 
mobileNet.Node[37].mobility.x = 800.000000
mobileNet.Node[37].mobility.y = 400.000000
mobileNet.Node[37].mobility.z = 0
mobileNet.Node[37].normalNic.id = 37
mobileNet.Node[37].normalNic.start_time = 0.892649 
mobileNet.Node[38].mobility.x = 900.000000
mobileNet.Node[38].mobility.y = 400.000000
mobileNet.Node[38].mobility.z = 0
mobileNet.Node[38].normalNic.id = 38
mobileNet.Node[38].normalNic.start_time = 0.838661 
mobileNet.Node[39].mobility.x = 1000.000000
mobileNet.Node[39].mobility.y = 400.000000
mobileNet.Node[39].mobility.z = 0
mobileNet.Node[39].normalNic.id = 39
mobileNet.Node[39].normalNic.start_time = 0.525183 
mobileNet.Node[40].mobility.x = 100.000000
mobileNet.Node[40].mobility.y = 500.000000
mobileNet.Node[40].mobility.z = 0
mobileNet.Node[40].normalNic.id = 40
mobileNet.Node[40].normalNic.start_time = 0.944660 
mobileNet.Node[41].mobility.x = 200.000000
mobileNet.Node[41].mobility.y = 500.000000
mobileNet.Node[41].mobility.z = 0
mobileNet.Node[41].normalNic.id = 41
mobileNet.Node[41].normalNic.start_time = 0.548842 
mobileNet.Node[42].mobility.x = 300.000000
mobileNet.Node[42].mobility.y = 500.000000
mobileNet.Node[42].mobility.z = 0
mobileNet.Node[42].normalNic.id = 42
mobileNet.Node[42].normalNic.start_time = 0.384995 
mobileNet.Node[43].mobility.x = 400.000000
mobileNet.Node[43].mobility.y = 500.000000
mobileNet.Node[43].mobility.z = 0
mobileNet.Node[43].normalNic.id = 43
mobileNet.Node[43].normalNic.start_time = 0.417902 
mobileNet.Node[44].mobility.x = 500.000000
mobileNet.Node[44].mobility.y = 500.000000
mobileNet.Node[44].mobility.z = 0
mobileNet.Node[44].normalNic.id = 44
mobileNet.Node[44].normalNic.start_time = 0.696291 
mobileNet.Node[45].mobility.x = 600.000000
mobileNet.Node[45].mobility.y = 500.000000
mobileNet.Node[45].mobility.z = 0
mobileNet.Node[45].normalNic.id = 45
mobileNet.Node[45].normalNic.start_time = 0.803787 
mobileNet.Node[46].mobility.x = 700.000000
mobileNet.Node[46].mobility.y = 500.000000
mobileNet.Node[46].mobility.z = 0
mobileNet.Node[46].normalNic.id = 46
mobileNet.Node[46].normalNic.start_time = 0.277078 
mobileNet.Node[47].mobility.x = 800.000000
mobileNet.Node[47].mobility.y = 500.000000
mobileNet.Node[47].mobility.z = 0
mobileNet.Node[47].normalNic.id = 47
mobileNet.Node[47].normalNic.start_time = 0.068047 
mobileNet.Node[48].mobility.x = 900.000000
mobileNet.Node[48].mobility.y = 500.000000
mobileNet.Node[48].mobility.z = 0
mobileNet.Node[48].normalNic.id = 48
mobileNet.Node[48].normalNic.start_time = 0.292927 
mobileNet.Node[49].mobility.x = 1000.000000
mobileNet.Node[49].mobility.y = 500.000000
mobileNet.Node[49].mobility.z = 0
mobileNet.Node[49].normalNic.id = 49
mobileNet.Node[49].normalNic.start_time = 0.046474 
mobileNet.Node[50].mobility.x = 100.000000
mobileNet.Node[50].mobility.y = 600.000000
mobileNet.Node[50].mobility.z = 0
mobileNet.Node[50].normalNic.id = 50
mobileNet.Node[50].normalNic.start_time = 0.892603 
mobileNet.Node[51].mobility.x = 200.000000
mobileNet.Node[51].mobility.y = 600.000000
mobileNet.Node[51].mobility.z = 0
mobileNet.Node[51].normalNic.id = 51
mobileNet.Node[51].normalNic.start_time = 0.644838 
mobileNet.Node[52].mobility.x = 300.000000
mobileNet.Node[52].mobility.y = 600.000000
mobileNet.Node[52].mobility.z = 0
mobileNet.Node[52].normalNic.id = 52
mobileNet.Node[52].normalNic.start_time = 0.569645 
mobileNet.Node[53].mobility.x = 400.000000
mobileNet.Node[53].mobility.y = 600.000000
mobileNet.Node[53].mobility.z = 0
mobileNet.Node[53].normalNic.id = 53
mobileNet.Node[53].normalNic.start_time = 0.174303 
mobileNet.Node[54].mobility.x = 500.000000
mobileNet.Node[54].mobility.y = 600.000000
mobileNet.Node[54].mobility.z = 0
mobileNet.Node[54].normalNic.id = 54
mobileNet.Node[54].normalNic.start_time = 0.360270 
mobileNet.Node[55].mobility.x = 600.000000
mobileNet.Node[55].mobility.y = 600.000000
mobileNet.Node[55].mobility.z = 0
mobileNet.Node[55].normalNic.id = 55
mobileNet.Node[55].normalNic.start_time = 0.698123 
mobileNet.Node[56].mobility.x = 700.000000
mobileNet.Node[56].mobility.y = 600.000000
mobileNet.Node[56].mobility.z = 0
mobileNet.Node[56].normalNic.id = 56
mobileNet.Node[56].normalNic.start_time = 0.775848 
mobileNet.Node[57].mobility.x = 800.000000
mobileNet.Node[57].mobility.y = 600.000000
mobileNet.Node[57].mobility.z = 0
mobileNet.Node[57].normalNic.id = 57
mobileNet.Node[57].normalNic.start_time = 0.801534 
mobileNet.Node[58].mobility.x = 900.000000
mobileNet.Node[58].mobility.y = 600.000000
mobileNet.Node[58].mobility.z = 0
mobileNet.Node[58].normalNic.id = 58
mobileNet.Node[58].normalNic.start_time = 0.862082 
mobileNet.Node[59].mobility.x = 1000.000000
mobileNet.Node[59].mobility.y = 600.000000
mobileNet.Node[59].mobility.z = 0
mobileNet.Node[59].normalNic.id = 59
mobileNet.Node[59].normalNic.start_time = 0.903774 
mobileNet.Node[60].mobility.x = 100.000000
mobileNet.Node[60].mobility.y = 700.000000
mobileNet.Node[60].mobility.z = 0
mobileNet.Node[60].normalNic.id = 60
mobileNet.Node[60].normalNic.start_time = 0.131533 
mobileNet.Node[61].mobility.x = 200.000000
mobileNet.Node[61].mobility.y = 700.000000
mobileNet.Node[61].mobility.z = 0
mobileNet.Node[61].normalNic.id = 61
mobileNet.Node[61].normalNic.start_time = 0.900293 
mobileNet.Node[62].mobility.x = 300.000000
mobileNet.Node[62].mobility.y = 700.000000
mobileNet.Node[62].mobility.z = 0
mobileNet.Node[62].normalNic.id = 62
mobileNet.Node[62].normalNic.start_time = 0.596875 
mobileNet.Node[63].mobility.x = 400.000000
mobileNet.Node[63].mobility.y = 700.000000
mobileNet.Node[63].mobility.z = 0
mobileNet.Node[63].normalNic.id = 63
mobileNet.Node[63].normalNic.start_time = 0.786850 
mobileNet.Node[64].mobility.x = 500.000000
mobileNet.Node[64].mobility.y = 700.000000
mobileNet.Node[64].mobility.z = 0
mobileNet.Node[64].normalNic.id = 64
mobileNet.Node[64].normalNic.start_time = 0.538493 
mobileNet.Node[65].mobility.x = 600.000000
mobileNet.Node[65].mobility.y = 700.000000
mobileNet.Node[65].mobility.z = 0
mobileNet.Node[65].normalNic.id = 65
mobileNet.Node[65].normalNic.start_time = 0.710853 
mobileNet.Node[66].mobility.x = 700.000000
mobileNet.Node[66].mobility.y = 700.000000
mobileNet.Node[66].mobility.z = 0
mobileNet.Node[66].normalNic.id = 66
mobileNet.Node[66].normalNic.start_time = 0.514323 
mobileNet.Node[67].mobility.x = 800.000000
mobileNet.Node[67].mobility.y = 700.000000
mobileNet.Node[67].mobility.z = 0
mobileNet.Node[67].normalNic.id = 67
mobileNet.Node[67].normalNic.start_time = 0.151195 
mobileNet.Node[68].mobility.x = 900.000000
mobileNet.Node[68].mobility.y = 700.000000
mobileNet.Node[68].mobility.z = 0
mobileNet.Node[68].normalNic.id = 68
mobileNet.Node[68].normalNic.start_time = 0.691387 
mobileNet.Node[69].mobility.x = 1000.000000
mobileNet.Node[69].mobility.y = 700.000000
mobileNet.Node[69].mobility.z = 0
mobileNet.Node[69].normalNic.id = 69
mobileNet.Node[69].normalNic.start_time = 0.073080 
mobileNet.Node[70].mobility.x = 100.000000
mobileNet.Node[70].mobility.y = 800.000000
mobileNet.Node[70].mobility.z = 0
mobileNet.Node[70].normalNic.id = 70
mobileNet.Node[70].normalNic.start_time = 0.969430 
mobileNet.Node[71].mobility.x = 200.000000
mobileNet.Node[71].mobility.y = 800.000000
mobileNet.Node[71].mobility.z = 0
mobileNet.Node[71].normalNic.id = 71
mobileNet.Node[71].normalNic.start_time = 0.954383 
mobileNet.Node[72].mobility.x = 300.000000
mobileNet.Node[72].mobility.y = 800.000000
mobileNet.Node[72].mobility.z = 0
mobileNet.Node[72].normalNic.id = 72
mobileNet.Node[72].normalNic.start_time = 0.522142 
mobileNet.Node[73].mobility.x = 400.000000
mobileNet.Node[73].mobility.y = 800.000000
mobileNet.Node[73].mobility.z = 0
mobileNet.Node[73].normalNic.id = 73
mobileNet.Node[73].normalNic.start_time = 0.529806 
mobileNet.Node[74].mobility.x = 500.000000
mobileNet.Node[74].mobility.y = 800.000000
mobileNet.Node[74].mobility.z = 0
mobileNet.Node[74].normalNic.id = 74
mobileNet.Node[74].normalNic.start_time = 0.942063 
mobileNet.Node[75].mobility.x = 600.000000
mobileNet.Node[75].mobility.y = 800.000000
mobileNet.Node[75].mobility.z = 0
mobileNet.Node[75].normalNic.id = 75
mobileNet.Node[75].normalNic.start_time = 0.590525 
mobileNet.Node[76].mobility.x = 700.000000
mobileNet.Node[76].mobility.y = 800.000000
mobileNet.Node[76].mobility.z = 0
mobileNet.Node[76].normalNic.id = 76
mobileNet.Node[76].normalNic.start_time = 0.820179 
mobileNet.Node[77].mobility.x = 800.000000
mobileNet.Node[77].mobility.y = 800.000000
mobileNet.Node[77].mobility.z = 0
mobileNet.Node[77].normalNic.id = 77
mobileNet.Node[77].normalNic.start_time = 0.883860 
mobileNet.Node[78].mobility.x = 900.000000
mobileNet.Node[78].mobility.y = 800.000000
mobileNet.Node[78].mobility.z = 0
mobileNet.Node[78].normalNic.id = 78
mobileNet.Node[78].normalNic.start_time = 0.021439 
mobileNet.Node[79].mobility.x = 1000.000000
mobileNet.Node[79].mobility.y = 800.000000
mobileNet.Node[79].mobility.z = 0
mobileNet.Node[79].normalNic.id = 79
mobileNet.Node[79].normalNic.start_time = 0.464169 
mobileNet.Node[80].mobility.x = 100.000000
mobileNet.Node[80].mobility.y = 900.000000
mobileNet.Node[80].mobility.z = 0
mobileNet.Node[80].normalNic.id = 80
mobileNet.Node[80].normalNic.start_time = 0.639031 
mobileNet.Node[81].mobility.x = 200.000000
mobileNet.Node[81].mobility.y = 900.000000
mobileNet.Node[81].mobility.z = 0
mobileNet.Node[81].normalNic.id = 81
mobileNet.Node[81].normalNic.start_time = 0.609123 
mobileNet.Node[82].mobility.x = 300.000000
mobileNet.Node[82].mobility.y = 900.000000
mobileNet.Node[82].mobility.z = 0
mobileNet.Node[82].normalNic.id = 82
mobileNet.Node[82].normalNic.start_time = 0.511812 
mobileNet.Node[83].mobility.x = 400.000000
mobileNet.Node[83].mobility.y = 900.000000
mobileNet.Node[83].mobility.z = 0
mobileNet.Node[83].normalNic.id = 83
mobileNet.Node[83].normalNic.start_time = 0.026558 
mobileNet.Node[84].mobility.x = 500.000000
mobileNet.Node[84].mobility.y = 900.000000
mobileNet.Node[84].mobility.z = 0
mobileNet.Node[84].normalNic.id = 84
mobileNet.Node[84].normalNic.start_time = 0.077871 
mobileNet.Node[85].mobility.x = 600.000000
mobileNet.Node[85].mobility.y = 900.000000
mobileNet.Node[85].mobility.z = 0
mobileNet.Node[85].normalNic.id = 85
mobileNet.Node[85].normalNic.start_time = 0.540645 
mobileNet.Node[86].mobility.x = 700.000000
mobileNet.Node[86].mobility.y = 900.000000
mobileNet.Node[86].mobility.z = 0
mobileNet.Node[86].normalNic.id = 86
mobileNet.Node[86].normalNic.start_time = 0.845836 
mobileNet.Node[87].mobility.x = 800.000000
mobileNet.Node[87].mobility.y = 900.000000
mobileNet.Node[87].mobility.z = 0
mobileNet.Node[87].normalNic.id = 87
mobileNet.Node[87].normalNic.start_time = 0.967525 
mobileNet.Node[88].mobility.x = 900.000000
mobileNet.Node[88].mobility.y = 900.000000
mobileNet.Node[88].mobility.z = 0
mobileNet.Node[88].normalNic.id = 88
mobileNet.Node[88].normalNic.start_time = 0.585273 
mobileNet.Node[89].mobility.x = 1000.000000
mobileNet.Node[89].mobility.y = 900.000000
mobileNet.Node[89].mobility.z = 0
mobileNet.Node[89].normalNic.id = 89
mobileNet.Node[89].normalNic.start_time = 0.855884 
mobileNet.Node[90].mobility.x = 100.000000
mobileNet.Node[90].mobility.y = 1000.000000
mobileNet.Node[90].mobility.z = 0
mobileNet.Node[90].normalNic.id = 90
mobileNet.Node[90].normalNic.start_time = 0.612922 
mobileNet.Node[91].mobility.x = 200.000000
mobileNet.Node[91].mobility.y = 1000.000000
mobileNet.Node[91].mobility.z = 0
mobileNet.Node[91].normalNic.id = 91
mobileNet.Node[91].normalNic.start_time = 0.939353 
mobileNet.Node[92].mobility.x = 300.000000
mobileNet.Node[92].mobility.y = 1000.000000
mobileNet.Node[92].mobility.z = 0
mobileNet.Node[92].normalNic.id = 92
mobileNet.Node[92].normalNic.start_time = 0.449024 
mobileNet.Node[93].mobility.x = 400.000000
mobileNet.Node[93].mobility.y = 1000.000000
mobileNet.Node[93].mobility.z = 0
mobileNet.Node[93].normalNic.id = 93
mobileNet.Node[93].normalNic.start_time = 0.831504 
mobileNet.Node[94].mobility.x = 500.000000
mobileNet.Node[94].mobility.y = 1000.000000
mobileNet.Node[94].mobility.z = 0
mobileNet.Node[94].normalNic.id = 94
mobileNet.Node[94].normalNic.start_time = 0.355234 
mobileNet.Node[95].mobility.x = 600.000000
mobileNet.Node[95].mobility.y = 1000.000000
mobileNet.Node[95].mobility.z = 0
mobileNet.Node[95].normalNic.id = 95
mobileNet.Node[95].normalNic.start_time = 0.992445 
mobileNet.Node[96].mobility.x = 700.000000
mobileNet.Node[96].mobility.y = 1000.000000
mobileNet.Node[96].mobility.z = 0
mobileNet.Node[96].normalNic.id = 96
mobileNet.Node[96].normalNic.start_time = 0.859684 
mobileNet.Node[97].mobility.x = 800.000000
mobileNet.Node[97].mobility.y = 1000.000000
mobileNet.Node[97].mobility.z = 0
mobileNet.Node[97].normalNic.id = 97
mobileNet.Node[97].normalNic.start_time = 0.102523 
mobileNet.Node[98].mobility.x = 900.000000
mobileNet.Node[98].mobility.y = 1000.000000
mobileNet.Node[98].mobility.z = 0
mobileNet.Node[98].normalNic.id = 98
mobileNet.Node[98].normalNic.start_time = 0.425536 
mobileNet.Node[99].mobility.x = 1000.000000
mobileNet.Node[99].mobility.y = 1000.000000
mobileNet.Node[99].mobility.z = 0
mobileNet.Node[99].normalNic.id = 99
mobileNet.Node[99].normalNic.start_time = 0.500117 
mobileNet.Node[*].mobility.speed= 27.777778
mobileNet.Node[*].mobility.updateInterval= 1.000000
mobileNet.Node[*].mobility.debug = 0 

